<?xml version="1.0" encoding="UTF-8"?>

<!-- generated on 2026-04-01T16:38:26.864818+07:00 by Eclipse SUMO netedit 1.26.0
-->

<routes xmlns:xsi="http://www.w3.org/2001/XMLSchema-instance" xsi:noNamespaceSchemaLocation="http://sumo.dlr.de/xsd/routes_file.xsd">
    <!-- Vehicles, persons and containers (sorted by depart) -->
    <flow id="f_0" begin="0.00" end="3600.00" perHour="1800.00" from="N2C" to="C2S"/>
    <flow id="f_1" begin="0.00" end="3600.00" perHour="1800.00" from="S2C" to="C2N"/>
    <flow id="f_2" begin="0.00" end="3600.00" perHour="1800.00" from="W2C" to="C2E"/>
    <flow id="f_3" begin="0.00" end="3600.00" perHour="1800.00" from="E2C" to="C2W"/>
    <flow id="f_4" begin="0.00" end="3600.00" perHour="180.00" from="E2C" to="C2N"/>
    <flow id="f_5" begin="0.00" end="3600.00" perHour="180.00" from="S2C" to="C2W"/>
</routes>
